** Aetheris AETHERIS-FEA-M5 verification deck
** Conventional C3D8 full-cell approximation; native Cut cells are omitted, never exported as full bricks.
*HEADING
PlateHoleCoarseAnalysis
*NODE
1, 0, 0, 0
2, 0.025, 0, 0
3, 0.05, 0, 0
4, 0.07500000000000001, 0, 0
5, 0.1, 0, 0
6, 0.125, 0, 0
7, 0.15000000000000002, 0, 0
8, 0.17500000000000002, 0, 0
9, 0.2, 0, 0
10, 0, 0.025, 0
11, 0.025, 0.025, 0
12, 0.05, 0.025, 0
13, 0.07500000000000001, 0.025, 0
14, 0.1, 0.025, 0
15, 0.125, 0.025, 0
16, 0.15000000000000002, 0.025, 0
17, 0.17500000000000002, 0.025, 0
18, 0.2, 0.025, 0
19, 0, 0.05, 0
20, 0.025, 0.05, 0
** ... 68 like lines cut
*ELEMENT, TYPE=C3D8, ELSET=SOLID
1, 1, 2, 11, 10, 45, 46, 55, 54
2, 2, 3, 12, 11, 46, 47, 56, 55
3, 3, 4, 13, 12, 47, 48, 57, 56
4, 4, 5, 14, 13, 48, 49, 58, 57
5, 5, 6, 15, 14, 49, 50, 59, 58
6, 6, 7, 16, 15, 50, 51, 60, 59
7, 7, 8, 17, 16, 51, 52, 61, 60
8, 8, 9, 18, 17, 52, 53, 62, 61
9, 10, 11, 20, 19, 54, 55, 64, 63
10, 11, 12, 21, 20, 55, 56, 65, 64
11, 12, 13, 22, 21, 56, 57, 66, 65
12, 15, 16, 24, 23, 59, 60, 68, 67
13, 16, 17, 25, 24, 60, 61, 69, 68
14, 17, 18, 26, 25, 61, 62, 70, 69
15, 19, 20, 28, 27, 63, 64, 72, 71
16, 20, 21, 29, 28, 64, 65, 73, 72
17, 21, 22, 30, 29, 65, 66, 74, 73
18, 23, 24, 33, 32, 67, 68, 77, 76
19, 24, 25, 34, 33, 68, 69, 78, 77
20, 25, 26, 35, 34, 69, 70, 79, 78
** ... 8 like lines cut
*ELSET, ELSET=SOLID
1, 2, 3, 4, 5, 6, 7, 8, 9, 10, 11, 12, 13, 14, 15, 16
17, 18, 19, 20, 21, 22, 23, 24, 25, 26, 27, 28
*NSET, NSET=CLAMP
1, 10, 19, 27, 36, 45, 54, 63, 71, 80
*NSET, NSET=TENSION
9, 18, 26, 35, 44, 53, 62, 70, 79, 88
*MATERIAL, NAME=STEEL
*ELASTIC
200000000000, 0.3
*SOLID SECTION, ELSET=SOLID, MATERIAL=STEEL
,
*BOUNDARY
CLAMP, 1, 1, 0
CLAMP, 2, 2, 0
CLAMP, 3, 3, 0
*STEP, NAME=LINEAR_STATIC, NLGEOM=NO
*STATIC
1., 1., 1e-05, 1.
*CLOAD
TENSION, 1, 1000
*OUTPUT, FIELD
*NODE OUTPUT
U, RF
*ELEMENT OUTPUT, DIRECTIONS=YES
S, E
*OUTPUT, HISTORY
*ENERGY OUTPUT
ALLSE
*END STEP
