** Aetheris AETHERIS-FEA-M5 verification deck
** Conventional C3D8 full-cell approximation; native Cut cells are omitted, never exported as full bricks.
*HEADING
PlateHoleFineAnalysis
*NODE
1, 0, 0, 0
2, 0.008333333333333333, 0, 0
3, 0.016666666666666666, 0, 0
4, 0.025, 0, 0
5, 0.03333333333333333, 0, 0
6, 0.041666666666666664, 0, 0
7, 0.05, 0, 0
8, 0.058333333333333334, 0, 0
9, 0.06666666666666667, 0, 0
10, 0.075, 0, 0
11, 0.08333333333333333, 0, 0
12, 0.09166666666666666, 0, 0
13, 0.1, 0, 0
14, 0.10833333333333334, 0, 0
15, 0.11666666666666667, 0, 0
16, 0.125, 0, 0
17, 0.13333333333333333, 0, 0
18, 0.14166666666666666, 0, 0
19, 0.15, 0, 0
20, 0.15833333333333333, 0, 0
** ... 940 like lines cut
*ELEMENT, TYPE=C3D8, ELSET=SOLID
1, 1, 2, 27, 26, 321, 322, 347, 346
2, 2, 3, 28, 27, 322, 323, 348, 347
3, 3, 4, 29, 28, 323, 324, 349, 348
4, 4, 5, 30, 29, 324, 325, 350, 349
5, 5, 6, 31, 30, 325, 326, 351, 350
6, 6, 7, 32, 31, 326, 327, 352, 351
7, 7, 8, 33, 32, 327, 328, 353, 352
8, 8, 9, 34, 33, 328, 329, 354, 353
9, 9, 10, 35, 34, 329, 330, 355, 354
10, 10, 11, 36, 35, 330, 331, 356, 355
11, 11, 12, 37, 36, 331, 332, 357, 356
12, 12, 13, 38, 37, 332, 333, 358, 357
13, 13, 14, 39, 38, 333, 334, 359, 358
14, 14, 15, 40, 39, 334, 335, 360, 359
15, 15, 16, 41, 40, 335, 336, 361, 360
16, 16, 17, 42, 41, 336, 337, 362, 361
17, 17, 18, 43, 42, 337, 338, 363, 362
18, 18, 19, 44, 43, 338, 339, 364, 363
19, 19, 20, 45, 44, 339, 340, 365, 364
20, 20, 21, 46, 45, 340, 341, 366, 365
** ... 532 like lines cut
*ELSET, ELSET=SOLID
1, 2, 3, 4, 5, 6, 7, 8, 9, 10, 11, 12, 13, 14, 15, 16
17, 18, 19, 20, 21, 22, 23, 24, 25, 26, 27, 28, 29, 30, 31, 32
33, 34, 35, 36, 37, 38, 39, 40, 41, 42, 43, 44, 45, 46, 47, 48
49, 50, 51, 52, 53, 54, 55, 56, 57, 58, 59, 60, 61, 62, 63, 64
65, 66, 67, 68, 69, 70, 71, 72, 73, 74, 75, 76, 77, 78, 79, 80
81, 82, 83, 84, 85, 86, 87, 88, 89, 90, 91, 92, 93, 94, 95, 96
97, 98, 99, 100, 101, 102, 103, 104, 105, 106, 107, 108, 109, 110, 111, 112
113, 114, 115, 116, 117, 118, 119, 120, 121, 122, 123, 124, 125, 126, 127, 128
129, 130, 131, 132, 133, 134, 135, 136, 137, 138, 139, 140, 141, 142, 143, 144
145, 146, 147, 148, 149, 150, 151, 152, 153, 154, 155, 156, 157, 158, 159, 160
161, 162, 163, 164, 165, 166, 167, 168, 169, 170, 171, 172, 173, 174, 175, 176
177, 178, 179, 180, 181, 182, 183, 184, 185, 186, 187, 188, 189, 190, 191, 192
193, 194, 195, 196, 197, 198, 199, 200, 201, 202, 203, 204, 205, 206, 207, 208
209, 210, 211, 212, 213, 214, 215, 216, 217, 218, 219, 220, 221, 222, 223, 224
225, 226, 227, 228, 229, 230, 231, 232, 233, 234, 235, 236, 237, 238, 239, 240
241, 242, 243, 244, 245, 246, 247, 248, 249, 250, 251, 252, 253, 254, 255, 256
257, 258, 259, 260, 261, 262, 263, 264, 265, 266, 267, 268, 269, 270, 271, 272
273, 274, 275, 276, 277, 278, 279, 280, 281, 282, 283, 284, 285, 286, 287, 288
289, 290, 291, 292, 293, 294, 295, 296, 297, 298, 299, 300, 301, 302, 303, 304
305, 306, 307, 308, 309, 310, 311, 312, 313, 314, 315, 316, 317, 318, 319, 320
** ... 15 like lines cut
*NSET, NSET=CLAMP
1, 26, 51, 76, 101, 126, 150, 172, 196, 221, 246, 271, 296, 321, 346, 371
396, 421, 446, 470, 492, 516, 541, 566, 591, 616, 641, 666, 691, 716, 741, 766
790, 812, 836, 861, 886, 911, 936
*NSET, NSET=TENSION
25, 50, 75, 100, 125, 149, 171, 195, 220, 245, 270, 295, 320, 345, 370, 395
420, 445, 469, 491, 515, 540, 565, 590, 615, 640, 665, 690, 715, 740, 765, 789
811, 835, 860, 885, 910, 935, 960
*MATERIAL, NAME=STEEL
*ELASTIC
200000000000, 0.3
*SOLID SECTION, ELSET=SOLID, MATERIAL=STEEL
,
*BOUNDARY
CLAMP, 1, 1, 0
CLAMP, 2, 2, 0
CLAMP, 3, 3, 0
*STEP, NAME=LINEAR_STATIC, NLGEOM=NO
*STATIC
1., 1., 1e-05, 1.
*CLOAD
TENSION, 1, 256.4102564102564
*OUTPUT, FIELD
*NODE OUTPUT
U, RF
*ELEMENT OUTPUT, DIRECTIONS=YES
S, E
*OUTPUT, HISTORY
*ENERGY OUTPUT
ALLSE
*END STEP
