** Aetheris AETHERIS-FEA-M5 verification deck
** Conventional C3D8 full-cell approximation; native Cut cells are omitted, never exported as full bricks.
*HEADING
PlateWithHole
*NODE
1, 0, 0, 0
2, 0.0125, 0, 0
3, 0.025, 0, 0
4, 0.037500000000000006, 0, 0
5, 0.05, 0, 0
6, 0.0625, 0, 0
7, 0.07500000000000001, 0, 0
8, 0.08750000000000001, 0, 0
9, 0.1, 0, 0
10, 0.1125, 0, 0
11, 0.125, 0, 0
12, 0.1375, 0, 0
13, 0.15000000000000002, 0, 0
14, 0.1625, 0, 0
15, 0.17500000000000002, 0, 0
16, 0.1875, 0, 0
17, 0.2, 0, 0
18, 0, 0.0125, 0
19, 0.0125, 0.0125, 0
20, 0.025, 0.0125, 0
** ... 436 like lines cut
*ELEMENT, TYPE=C3D8, ELSET=SOLID
1, 1, 2, 19, 18, 153, 154, 171, 170
2, 2, 3, 20, 19, 154, 155, 172, 171
3, 3, 4, 21, 20, 155, 156, 173, 172
4, 4, 5, 22, 21, 156, 157, 174, 173
5, 5, 6, 23, 22, 157, 158, 175, 174
6, 6, 7, 24, 23, 158, 159, 176, 175
7, 7, 8, 25, 24, 159, 160, 177, 176
8, 8, 9, 26, 25, 160, 161, 178, 177
9, 9, 10, 27, 26, 161, 162, 179, 178
10, 10, 11, 28, 27, 162, 163, 180, 179
11, 11, 12, 29, 28, 163, 164, 181, 180
12, 12, 13, 30, 29, 164, 165, 182, 181
13, 13, 14, 31, 30, 165, 166, 183, 182
14, 14, 15, 32, 31, 166, 167, 184, 183
15, 15, 16, 33, 32, 167, 168, 185, 184
16, 16, 17, 34, 33, 168, 169, 186, 185
17, 18, 19, 36, 35, 170, 171, 188, 187
18, 19, 20, 37, 36, 171, 172, 189, 188
19, 20, 21, 38, 37, 172, 173, 190, 189
20, 21, 22, 39, 38, 173, 174, 191, 190
** ... 228 like lines cut
*ELSET, ELSET=SOLID
1, 2, 3, 4, 5, 6, 7, 8, 9, 10, 11, 12, 13, 14, 15, 16
17, 18, 19, 20, 21, 22, 23, 24, 25, 26, 27, 28, 29, 30, 31, 32
33, 34, 35, 36, 37, 38, 39, 40, 41, 42, 43, 44, 45, 46, 47, 48
49, 50, 51, 52, 53, 54, 55, 56, 57, 58, 59, 60, 61, 62, 63, 64
65, 66, 67, 68, 69, 70, 71, 72, 73, 74, 75, 76, 77, 78, 79, 80
81, 82, 83, 84, 85, 86, 87, 88, 89, 90, 91, 92, 93, 94, 95, 96
97, 98, 99, 100, 101, 102, 103, 104, 105, 106, 107, 108, 109, 110, 111, 112
113, 114, 115, 116, 117, 118, 119, 120, 121, 122, 123, 124, 125, 126, 127, 128
129, 130, 131, 132, 133, 134, 135, 136, 137, 138, 139, 140, 141, 142, 143, 144
145, 146, 147, 148, 149, 150, 151, 152, 153, 154, 155, 156, 157, 158, 159, 160
161, 162, 163, 164, 165, 166, 167, 168, 169, 170, 171, 172, 173, 174, 175, 176
177, 178, 179, 180, 181, 182, 183, 184, 185, 186, 187, 188, 189, 190, 191, 192
193, 194, 195, 196, 197, 198, 199, 200, 201, 202, 203, 204, 205, 206, 207, 208
209, 210, 211, 212, 213, 214, 215, 216, 217, 218, 219, 220, 221, 222, 223, 224
225, 226, 227, 228, 229, 230, 231, 232, 233, 234, 235, 236, 237, 238, 239, 240
241, 242, 243, 244, 245, 246, 247, 248
*NSET, NSET=CLAMP
1, 18, 35, 52, 69, 85, 102, 119, 136, 153, 170, 187, 204, 221, 237, 254
271, 288, 305, 322, 339, 356, 373, 389, 406, 423, 440
*NSET, NSET=TENSION
17, 34, 51, 68, 84, 101, 118, 135, 152, 169, 186, 203, 220, 236, 253, 270
287, 304, 321, 338, 355, 372, 388, 405, 422, 439, 456
*MATERIAL, NAME=STEEL
*ELASTIC
200000000000, 0.3
*DENSITY
7850
*SOLID SECTION, ELSET=SOLID, MATERIAL=STEEL
,
*BOUNDARY
CLAMP, 1, 1, 0
CLAMP, 2, 2, 0
CLAMP, 3, 3, 0
*STEP, NAME=LINEAR_STATIC, NLGEOM=NO
*STATIC
1., 1., 1e-05, 1.
*CLOAD
TENSION, 1, 370.3703703703704
*OUTPUT, FIELD
*NODE OUTPUT
U, RF
*ELEMENT OUTPUT, DIRECTIONS=YES
S, E
*OUTPUT, HISTORY
*ENERGY OUTPUT
ALLSE
*END STEP
